*SPEF "IEEE 1481.1999"
*DESIGN "accumulator_4bit"
*DATE "14:49:10 Tuesday December 16, 2025"
*VENDOR "unknown"
*PROGRAM "qrouter"
*VERSION "unknown"
*DESIGN_FLOW "qflow"
*DIVIDER /
*DELIMITER :
*BUS_DELIMITER <>
*T_UNIT 1 PS
*C_UNIT 1 FF
*R_UNIT 1 OHM
*L_UNIT 1 HENRY

*NAME_MAP
*1 rst_n
*2 _28_
*3 _34_
*4 _49_
*5 _42_
*6 clk
*7 _51_
*8 _52_
*9 _53_
*10 _54_
*11 _25_[0]
*12 _51_
*13 _55_
*14 _26_
*15 _28_
*16 _5_
*17 _27_
*18 _29_
*19 _34_
*20 _35_
*21 _25_[1]
*22 _52_
*23 _56_
*24 _32_
*25 _30_
*26 _12_
*27 _36_
*28 _45_
*29 _43_
*30 _42_
*31 _25_[2]
*32 _53_
*33 _40_
*34 _37_
*35 _57_
*36 _25_[3]
*37 _54_
*38 _47_
*39 _46_
*40 _58_
*41 in[0]
*42 _26_
*43 _28_
*44 _4_
*45 _26_
*46 _27_
*47 _36_
*48 in[1]
*49 _30_
*50 _32_
*51 _7_
*52 _30_
*53 _31_
*54 _36_
*55 _9_
*56 _32_
*57 _33_
*58 _36_
*59 _10_
*60 _33_
*61 _35_
*62 _34_
*63 in[2]
*64 _40_
*65 _38_
*66 _15_
*67 _39_
*68 _41_
*69 _45_
*70 _16_
*71 _40_
*72 _41_
*73 _44_
*74 _17_
*75 _41_
*76 _43_
*77 _42_
*78 _20_
*79 _45_
*80 _50_
*81 _49_
*82 in[3]
*83 _46_
*84 _47_
*85 _23_
*86 _48_
*87 _49_
*88 _50_
*89 _6_
*90 _28_
*91 _29_
*92 _0_
*93 _29_
*94 _51_
*95 _8_
*96 _31_
*97 _33_
*98 _11_
*99 _34_
*100 _35_
*101 _1_
*102 _35_
*103 _52_
*104 _13_
*105 _37_
*106 _39_
*107 _14_
*108 _38_
*109 _39_
*110 _18_
*111 _42_
*112 _43_
*113 _2_
*114 _43_
*115 _53_
*116 _19_
*117 _44_
*118 _45_
*119 _21_
*120 _46_
*121 _48_
*122 _22_
*123 _47_
*124 _48_
*125 _24_
*126 _49_
*127 _50_
*128 _3_
*129 _50_
*130 _54_
*131 out[0]
*132 _55_
*133 out[1]
*134 _56_
*135 out[2]
*136 _57_
*137 out[3]
*138 _58_

*PORTS
*1 I
*6 I
*41 I
*48 I
*63 I
*82 I
*131 O
*133 O
*135 O
*137 O

*D_NET *1 0.003492
*CONN
*P *1 O
*I *2:C I *L 0
*I *3:C I *L 0
*I *4:C I *L 0
*I *5:C I *L 0
*CAP
1 1_1 0.0005472
2 1_2 0.0006264
3 1_3 0.0006048
4 1_4 0.0009936
5 1_5 0.000144
6 1_6 0.000576
*RES
1 *1 1_1 2.14643
2 1_1 *2:C 0
3 1_1 1_2 2.66786
4 1_2 1_3 2.675
5 1_3 *3:C 0
6 1_2 1_4 5.01071
7 1_4 1_5 0.5
8 1_5 *4:C 0
9 1_4 1_6 2
10 1_6 *5:C 0
*END
*D_NET *6 0.0052272
*CONN
*P *6 O
*I *7:CLK I *L 0
*I *8:CLK I *L 0
*I *9:CLK I *L 0
*I *10:CLK I *L 0
*CAP
1 6_1 0.0012672
2 6_2 0.0010944
3 6_3 0.0014112
4 6_4 0.0001512
5 6_5 0.0013032
*RES
1 *6 6_1 5.05714
2 6_1 *7:CLK 0
3 6_1 6_2 4.70357
4 6_2 *8:CLK 0
5 6_2 6_3 7.2
6 6_3 6_4 0.771429
7 6_4 *9:CLK 0
8 6_3 6_5 4.77143
9 6_5 *10:CLK 0
*END
*D_NET *11 0.0017496
*CONN
*I *12:Q O *D _51
*I *13:A I *L 0
*I *14:A I *L 0
*I *15:A I *L 0
*CAP
1 11_1 0.000216
2 11_2 0.0008352
3 11_3 0.000216
4 11_4 0.0004824
*RES
1 *12:Q 11_1 0.75
2 11_1 *13:A 0
3 11_1 11_2 3.14643
4 11_2 11_3 0.75
5 11_3 *14:A 0
6 11_2 11_4 2.16786
7 11_4 *15:A 0
*END
*D_NET *16 0.001332
*CONN
*I *17:Y O *D _27
*I *18:B I *L 0
*I *19:A I *L 0
*I *20:A I *L 0
*CAP
1 16_1 0.000252
2 16_2 3.6e-05
3 16_3 0.0009
4 16_4 0.000144
*RES
1 *17:Y 16_1 0.875
2 16_1 16_2 0.125
3 16_2 *18:B 0
4 16_2 16_3 3.94643
5 16_3 *19:A 0
6 16_3 16_4 0.5
7 16_4 *20:A 0
*END
*D_NET *21 0.0026496
*CONN
*I *22:Q O *D _52
*I *23:A I *L 0
*I *24:A I *L 0
*I *25:A I *L 0
*CAP
1 21_1 0.000504
2 21_2 0.0004032
3 21_3 0.0011448
4 21_4 0.0001008
5 21_5 0.0004968
*RES
1 *22:Q 21_1 2.16071
2 21_1 21_2 2.05714
3 21_2 *23:A 0
4 21_1 21_3 4.13929
5 21_3 21_4 0.514286
6 21_4 *24:A 0
7 21_3 21_5 2.3
8 21_5 *25:A 0
*END
*D_NET *26 0.0020016
*CONN
*I *27:Y O *D _36
*I *28:A I *L 0
*I *29:A I *L 0
*I *30:A I *L 0
*CAP
1 26_1 0.0011592
2 26_2 0.0001512
3 26_3 0.0005472
4 26_4 0.000144
*RES
1 *27:Y 26_1 5.09286
2 26_1 26_2 0.771429
3 26_2 *28:A 0
4 26_1 26_3 2.14643
5 26_3 *29:A 0
6 26_3 26_4 0.5
7 26_4 *30:A 0
*END
*D_NET *31 0.0012384
*CONN
*I *32:Q O *D _53
*I *33:A I *L 0
*I *34:A I *L 0
*I *35:A I *L 0
*CAP
1 31_1 0.000216
2 31_2 0.0002448
3 31_3 3.6e-05
4 31_4 0.0007416
*RES
1 *32:Q 31_1 0.75
2 31_1 *33:A 0
3 31_1 31_2 1.01429
4 31_2 31_3 0.125
5 31_3 *34:A 0
6 31_3 31_4 3.31429
7 31_4 *35:A 0
*END
*D_NET *36 0.0038808
*CONN
*I *37:Q O *D _54
*I *38:A I *L 0
*I *39:A I *L 0
*I *40:A I *L 0
*CAP
1 36_1 0.0005544
2 36_2 0.00018
3 36_3 0.000252
4 36_4 0.0002952
5 36_5 0.0025992
*RES
1 *37:Q 36_1 2.82857
2 36_1 36_2 0.625
3 36_2 *38:A 0
4 36_1 36_3 1.28571
5 36_3 36_4 1.27143
6 36_4 *39:A 0
7 36_3 36_5 10.9143
8 36_5 *40:A 0
*END
*D_NET *41 0.000648
*CONN
*P *41 O
*I *42:B I *L 0
*I *43:B I *L 0
*CAP
1 41_1 0.000216
2 41_2 0.000432
*RES
1 *41 41_1 0.75
2 41_1 *42:B 0
3 41_1 41_2 1.91071
4 41_2 *43:B 0
*END
*D_NET *44 0.0010296
*CONN
*I *45:Y O *D _26
*I *46:A I *L 0
*I *47:A I *L 0
*CAP
1 44_1 0.0004536
2 44_2 0.0001728
3 44_3 0.0004032
*RES
1 *45:Y 44_1 1.90357
2 44_1 44_2 0.764286
3 44_2 *46:A 0
4 44_1 44_3 2.05714
5 44_3 *47:A 0
*END
*D_NET *48 0.000468
*CONN
*P *48 O
*I *49:B I *L 0
*I *50:B I *L 0
*CAP
1 48_1 0.000144
2 48_2 3.6e-05
3 48_3 0.000288
*RES
1 *48 48_1 0.5
2 48_1 48_2 0.125
3 48_2 *49:B 0
4 48_2 48_3 1
5 48_3 *50:B 0
*END
*D_NET *51 0.0011232
*CONN
*I *52:Y O *D _30
*I *53:A I *L 0
*I *54:C I *L 0
*CAP
1 51_1 0.000612
2 51_2 0.0002592
3 51_3 0.000252
*RES
1 *52:Y 51_1 2.53571
2 51_1 51_2 1.14643
3 51_2 *53:A 0
4 51_1 51_3 1.28571
5 51_3 *54:C 0
*END
*D_NET *55 0.0012456
*CONN
*I *56:Y O *D _32
*I *57:A I *L 0
*I *58:B I *L 0
*CAP
1 55_1 0.0008496
2 55_2 0.000396
*RES
1 *56:Y 55_1 3.68929
2 55_1 *57:A 0
3 55_1 55_2 1.375
4 55_2 *58:B 0
*END
*D_NET *59 0.0006912
*CONN
*I *60:Y O *D _33
*I *61:B I *L 0
*I *62:B I *L 0
*CAP
1 59_1 0.000144
2 59_2 0.000252
3 59_3 0.0002952
*RES
1 *60:Y 59_1 0.5
2 59_1 59_2 0.875
3 59_2 *61:B 0
4 59_1 59_3 1.27143
5 59_3 *62:B 0
*END
*D_NET *63 0.0018864
*CONN
*P *63 O
*I *64:B I *L 0
*I *65:A I *L 0
*CAP
1 63_1 0.0014256
2 63_2 0.0004248
3 63_3 3.6e-05
*RES
1 *63 63_1 5.68929
2 63_1 63_2 1.63929
3 63_2 *64:B 0
4 63_1 63_3 0.125
5 63_3 *65:A 0
*END
*D_NET *66 0.000936
*CONN
*I *67:Y O *D _39
*I *68:B I *L 0
*I *69:C I *L 0
*CAP
1 66_1 0.000648
2 66_2 0.000288
*RES
1 *67:Y 66_1 3.07143
2 66_1 *68:B 0
3 66_1 66_2 1
4 66_2 *69:C 0
*END
*D_NET *70 0.0022032
*CONN
*I *71:Y O *D _40
*I *72:A I *L 0
*I *73:A I *L 0
*CAP
1 70_1 0.0004032
2 70_2 0.0002448
3 70_3 0.0015552
*RES
1 *71:Y 70_1 2.05714
2 70_1 70_2 1.01429
3 70_2 *72:A 0
4 70_1 70_3 7.7
5 70_3 *73:A 0
*END
*D_NET *74 0.0008136
*CONN
*I *75:Y O *D _41
*I *76:B I *L 0
*I *77:B I *L 0
*CAP
1 74_1 0.0005616
2 74_2 0.000252
*RES
1 *75:Y 74_1 2.27857
2 74_1 *76:B 0
3 74_1 74_2 0.875
4 74_2 *77:B 0
*END
*D_NET *78 0.0009144
*CONN
*I *79:Y O *D _45
*I *80:A I *L 0
*I *81:B I *L 0
*CAP
1 78_1 0.0006984
2 78_2 0.000216
*RES
1 *79:Y 78_1 3.32857
2 78_1 *80:A 0
3 78_1 78_2 0.75
4 78_2 *81:B 0
*END
*D_NET *82 0.0010152
*CONN
*P *82 O
*I *83:B I *L 0
*I *84:B I *L 0
*CAP
1 82_1 0.0005472
2 82_2 0.000468
*RES
1 *82 82_1 2.14643
2 82_1 *83:B 0
3 82_1 82_2 2.03571
4 82_2 *84:B 0
*END
*D_NET *85 0.0009792
*CONN
*I *86:Y O *D _48
*I *87:A I *L 0
*I *88:B I *L 0
*CAP
1 85_1 0.0003672
2 85_2 0.0002088
3 85_3 0.0004032
*RES
1 *86:Y 85_1 1.52143
2 85_1 85_2 0.889286
3 85_2 *87:A 0
4 85_1 85_3 2.05714
5 85_3 *88:B 0
*END
*D_NET *89 0.000252
*CONN
*I *90:Y O *D _28
*I *91:A I *L 0
*CAP
1 89_1 0.000252
*RES
1 *90:Y 89_1 0.875
2 89_1 *91:A 0
*END
*D_NET *92 0.0003888
*CONN
*I *93:Y O *D _29
*I *94:D I *L 0
*CAP
1 92_1 0.0003888
*RES
1 *93:Y 92_1 1.51429
2 92_1 *94:D 0
*END
*D_NET *95 0.000252
*CONN
*I *96:Y O *D _31
*I *97:B I *L 0
*CAP
1 95_1 0.000252
*RES
1 *96:Y 95_1 0.875
2 95_1 *97:B 0
*END
*D_NET *98 0.0009216
*CONN
*I *99:Y O *D _34
*I *100:C I *L 0
*CAP
1 98_1 0.0009216
*RES
1 *99:Y 98_1 3.93929
2 98_1 *100:C 0
*END
*D_NET *101 0.000252
*CONN
*I *102:Y O *D _35
*I *103:D I *L 0
*CAP
1 101_1 0.000252
*RES
1 *102:Y 101_1 0.875
2 101_1 *103:D 0
*END
*D_NET *104 0.000324
*CONN
*I *105:Y O *D _37
*I *106:A I *L 0
*CAP
1 104_1 0.000324
*RES
1 *105:Y 104_1 1.125
2 104_1 *106:A 0
*END
*D_NET *107 0.0004608
*CONN
*I *108:Y O *D _38
*I *109:B I *L 0
*CAP
1 107_1 0.0004608
*RES
1 *108:Y 107_1 2.175
2 107_1 *109:B 0
*END
*D_NET *110 0.0004248
*CONN
*I *111:Y O *D _42
*I *112:C I *L 0
*CAP
1 110_1 0.0004248
*RES
1 *111:Y 110_1 1.63929
2 110_1 *112:C 0
*END
*D_NET *113 0.000648
*CONN
*I *114:Y O *D _43
*I *115:D I *L 0
*CAP
1 113_1 0.000648
*RES
1 *114:Y 113_1 3.07143
2 113_1 *115:D 0
*END
*D_NET *116 0.0023472
*CONN
*I *117:Y O *D _44
*I *118:B I *L 0
*CAP
1 116_1 0.0023472
*RES
1 *117:Y 116_1 11.2714
2 116_1 *118:B 0
*END
*D_NET *119 0.0004536
*CONN
*I *120:Y O *D _46
*I *121:A I *L 0
*CAP
1 119_1 0.0004536
*RES
1 *120:Y 119_1 1.90357
2 119_1 *121:A 0
*END
*D_NET *122 0.0002808
*CONN
*I *123:Y O *D _47
*I *124:B I *L 0
*CAP
1 122_1 0.0002808
*RES
1 *123:Y 122_1 1.13929
2 122_1 *124:B 0
*END
*D_NET *125 0.0008064
*CONN
*I *126:Y O *D _49
*I *127:C I *L 0
*CAP
1 125_1 0.0008064
*RES
1 *126:Y 125_1 3.70357
2 125_1 *127:C 0
*END
*D_NET *128 0.000252
*CONN
*I *129:Y O *D _50
*I *130:D I *L 0
*CAP
1 128_1 0.000252
*RES
1 *129:Y 128_1 0.875
2 128_1 *130:D 0
*END
*D_NET *131 0.0008856
*CONN
*I *132:Y O *D _55
*P *131 I
*CAP
1 131_1 0.0008856
*RES
1 *132:Y 131_1 3.81429
2 131_1 *131 0
*END
*D_NET *133 0.0006408
*CONN
*I *134:Y O *D _56
*P *133 I
*CAP
1 133_1 0.0006408
*RES
1 *134:Y 133_1 2.8
2 133_1 *133 0
*END
*D_NET *135 0.0016488
*CONN
*I *136:Y O *D _57
*P *135 I
*CAP
1 135_1 0.0016488
*RES
1 *136:Y 135_1 7.94286
2 135_1 *135 0
*END
*D_NET *137 0.00018
*CONN
*I *138:Y O *D _58
*P *137 I
*CAP
1 137_1 0.00018
*RES
1 *138:Y 137_1 0.625
2 137_1 *137 0
*END
